1
9
.tran 100m 30 0
3
1
/vg1
V
1
/vg2
V
1
/vload
V
